Circuit: * D:\Portfolio Website\Spice\ACDC.asc

.OP point found by inspection.

Date: Thu Mar 21 19:23:19 2024
Total elapsed time: 0.144 seconds.

tnom = 27
temp = 27
method = modified trap
totiter = 19396
traniter = 19396
tranpoints = 4648
accept = 3686
rejected = 962
matrix size = 12
fillins = 4
solver = Normal
Avg thread counts: 1.3/2.3/2.5/1.3
Matrix Compiler1:      49 opcodes  0.2/[0.2]/0.2
Matrix Compiler2: 982 bytes object code size  0.1/0.2/[0.1]

